(PID.TID 0000.0001) ** Warning ** GRDCHK_READPARMS: ignores "data.grdchk" file since
(PID.TID 0000.0001) ** Warning ** GRDCHK_READPARMS: useGrdChk= F (set from "data.pkg")
