(PID.TID 0000.0001) W2_E2SETUP: number of Active Tiles =       1
(PID.TID 0000.0001) W2_E2SETUP: number of Blank Tiles  =       0
(PID.TID 0000.0001) W2_E2SETUP: Total number of Tiles  =       1
(PID.TID 0000.0001) W2_SET_SINGLE_FACET: preDefTopol=  1 selected
(PID.TID 0000.0001) W2_E2SETUP: Total number of Facets =       1
(PID.TID 0000.0001) W2_SET_F2F_INDEX: index matrix for connected Facet-Edges:
  N.Edge Facet  1 <-- S.Edge Facet  1 : pij=  1  0  0  1 ; oi,oj=     0    64
  S.Edge Facet  1 <-- N.Edge Facet  1 : pij=  1  0  0  1 ; oi,oj=     0   -64
  E.Edge Facet  1 <-- W.Edge Facet  1 : pij=  1  0  0  1 ; oi,oj=   128     0
  W.Edge Facet  1 <-- E.Edge Facet  1 : pij=  1  0  0  1 ; oi,oj=  -128     0
(PID.TID 0000.0001) W2_SET_MAP_TILES: tile mapping within facet and global Map:
(PID.TID 0000.0001)  Global Map (IO): X-size=     128 , Y-size=      64
(PID.TID 0000.0001) W2_SET_MAP_TILES: tile offset within facet and global Map:
- facet  1 : X-size=   128 , Y-size=    64 ;    1 tiles (Tx,Ty=   1,   1)
  tile    1 on facet  1 (  1,  1): offset=    0    0 ; on Glob.Map=       1       1
(PID.TID 0000.0001) W2_SET_MAP_CUMSUM: setting Facet Matrix for CUMUL-SUM
 Facet Matrix for CUMUL-SUM (nFacets=   1, nActive=   1 ):
- facet  1 :  0  0 ,
(PID.TID 0000.0001) W2_SET_MAP_CUMSUM: done (skip Tile Matrix setting)
(PID.TID 0000.0001) W2_SET_TILE2TILES: tile neighbours and index connection:
Tile    1 : nbNeighb=  4 ; is-at-Facet-Edge: N= 1 , S= 1 , E= 1 , W= 1
 ns:  1 it=    1, iLo,iHi=     0   129, jLo,jHi=    65    65
 ns:  2 it=    1, iLo,iHi=     0   129, jLo,jHi=     0     0
 ns:  3 it=    1, iLo,iHi=   129   129, jLo,jHi=     0    65
 ns:  4 it=    1, iLo,iHi=     0     0, jLo,jHi=     0    65
(PID.TID 0000.0001) current Max.Nb.Neighbours (e.g., on tile    1 ) =  4
(PID.TID 0000.0001) ===== W2 TILE TOPOLOGY =====
(PID.TID 0000.0001)  TILE:     1 (bi,bj=   1   1 ), Nb of Neighbours =  4
(PID.TID 0000.0001)     NEIGHBOUR  1 = TILE    1 (n=  2) Comm = PUT (PROC=    1)
(PID.TID 0000.0001)     NEIGHBOUR  2 = TILE    1 (n=  1) Comm = PUT (PROC=    1)
(PID.TID 0000.0001)     NEIGHBOUR  3 = TILE    1 (n=  4) Comm = PUT (PROC=    1)
(PID.TID 0000.0001)     NEIGHBOUR  4 = TILE    1 (n=  3) Comm = PUT (PROC=    1)
Tile     1 (pr=   1) sends pts i=  -3: 132, j=  61:  64
                        to pts i=  -3: 132, j=  -3:   0 in tile      1 (pr=   1)
Tile     1 (pr=   1) sends pts i=  -3: 132, j=   1:   4
                        to pts i=  -3: 132, j=  65:  68 in tile      1 (pr=   1)
Tile     1 (pr=   1) sends pts i= 125: 128, j=  -3:  68
                        to pts i=  -3:   0, j=  -3:  68 in tile      1 (pr=   1)
Tile     1 (pr=   1) sends pts i=   1:   4, j=  -3:  68
                        to pts i= 129: 132, j=  -3:  68 in tile      1 (pr=   1)
Tile     1 (pr=   1) recv pts i=  -3: 132, j=  65:  68 from tile     1 (pr=   1)
Tile     1 (pr=   1) recv pts i=  -3: 132, j=  -3:   0 from tile     1 (pr=   1)
Tile     1 (pr=   1) recv pts i= 129: 132, j=  -3:  68 from tile     1 (pr=   1)
Tile     1 (pr=   1) recv pts i=  -3:   0, j=  -3:  68 from tile     1 (pr=   1)
(PID.TID 0000.0001) ===  End TOPOLOGY report ===
